powerflow/LVTestCase_copy/LVTest_VLN.Txt

SYMMETRICAL COMPONENT VOLTAGES BY BUS (for 3-phase buses)

Bus        Mag:   V1 (kV)    p.u.     V2 (kV)   %V2/V1    V0 (kV)    %V0/V1

sourcebus     6.351          1  6.521E-006  0.0001027 4.131E-010 6.505E-009
1            0.2399     0.9988  7.105E-005    0.02962 6.889E-005   0.02872
2            0.2398     0.9986  7.218E-005    0.03009 7.208E-005   0.03005
3            0.2398     0.9986  7.231E-005    0.03015 7.254E-005   0.03025
4            0.2398     0.9986  7.244E-005     0.0302  7.3E-005   0.03044
5            0.2398     0.9986  7.255E-005    0.03025 7.341E-005   0.03061
6            0.2398     0.9986  7.272E-005    0.03032 7.409E-005   0.03089
7            0.2395      0.997  9.184E-005    0.03835 0.0001645   0.06868
8            0.2394      0.997  9.296E-005    0.03882 0.0001694   0.07074
9            0.2394     0.9969  9.389E-005    0.03921 0.0001735   0.07246
10           0.2394     0.9969  9.472E-005    0.03956 0.0001771   0.07398
11           0.2394     0.9968  9.535E-005    0.03983 0.0001799   0.07512
12           0.2394     0.9968  9.594E-005    0.04007 0.0001824   0.07619
13           0.2394     0.9968  9.631E-005    0.04023  0.000184   0.07685
14           0.2394     0.9967  9.722E-005    0.04061 0.0001879    0.0785
15           0.2393     0.9963  0.0001049    0.04386 0.0002202   0.09201
16           0.2393     0.9963  0.0001049    0.04386 0.0002202   0.09201
17           0.2392     0.9957  0.0001149    0.04805   0.00026    0.1087
18           0.2393     0.9963  0.0001049    0.04386 0.0002202   0.09201
19           0.2391     0.9957  0.0001156    0.04835 0.0002627    0.1099
20           0.2393     0.9963  0.0001049    0.04386 0.0002202   0.09201
21           0.2391     0.9957  0.0001164    0.04868 0.0002658    0.1112
22           0.2393     0.9963  0.0001049    0.04386 0.0002202   0.09201
23           0.2391     0.9956  0.0001177    0.04923 0.0002709    0.1133
24           0.2393     0.9963  0.0001049    0.04386 0.0002202   0.09201
25           0.2391     0.9955  0.0001201    0.05023 0.0002801    0.1171
26           0.2393     0.9963  0.0001049    0.04386 0.0002202   0.09201
27           0.2391     0.9954  0.0001249    0.05223 0.0002987    0.1249
28           0.2387      0.994  0.0001472    0.06167 0.0003594    0.1505
29           0.2393     0.9963  0.0001049    0.04386 0.0002202   0.09201
30           0.2391     0.9954  0.0001257     0.0526 0.0003013     0.126
31           0.2391     0.9954  0.0001257    0.05259 0.0003012     0.126
32           0.2386     0.9936  0.0001545    0.06475 0.0003813    0.1598
33           0.2393     0.9963  0.0001049    0.04386 0.0002202   0.09201
34           0.2391     0.9954   0.000128    0.05354 0.0003073    0.1285
35           0.2391     0.9954  0.0001258     0.0526 0.0003013     0.126
36           0.2386     0.9936  0.0001693    0.07094 0.0003843     0.161
37           0.2384     0.9925  0.0001699    0.07126 0.0004444    0.1864
38           0.2393     0.9963  0.0001049    0.04386 0.0002202   0.09201
39           0.2391     0.9954  0.0001258    0.05262 0.0003014    0.1261
40           0.2386     0.9936  0.0001698    0.07116 0.0003844    0.1611
41           0.2386     0.9935  0.0001717    0.07195 0.0003849    0.1613
42           0.2382     0.9917   0.000181    0.07599 0.0004882     0.205
43           0.2384     0.9925  0.0001699    0.07126 0.0004444    0.1864
44           0.2393     0.9963  0.0001049    0.04386 0.0002202   0.09201
45           0.2391     0.9954  0.0001259    0.05264 0.0003016    0.1262
46           0.2386     0.9936  0.0001701    0.07126 0.0003845    0.1611
47           0.2386     0.9935  0.0001776    0.07442 0.0003863    0.1619
48            0.238     0.9911  0.0001896    0.07967 0.0005214     0.219
49           0.2384     0.9925  0.0001699    0.07126 0.0004444    0.1864
50           0.2393     0.9963  0.0001049    0.04386 0.0002202   0.09201
51           0.2391     0.9954   0.000126     0.0527  0.000302    0.1263
52           0.2386     0.9936  0.0001703    0.07137 0.0003845    0.1611
53            0.238      0.991  0.0001909     0.0802 0.0005261     0.221
54            0.238     0.9911  0.0001896    0.07967 0.0005214     0.219
55           0.2384     0.9925  0.0001699    0.07126 0.0004444    0.1864
56           0.2393     0.9963  0.0001049    0.04386 0.0002202   0.09201
57           0.2391     0.9954  0.0001261    0.05275 0.0003023    0.1265
58           0.2386     0.9936  0.0001706    0.07147 0.0003846    0.1612
59           0.2379     0.9907  0.0001967    0.08265 0.0005478    0.2302
60            0.238     0.9911  0.0001896    0.07967 0.0005214     0.219
61           0.2384     0.9925  0.0001699    0.07126 0.0004444    0.1864
62           0.2393     0.9963  0.0001049    0.04386 0.0002202   0.09201
63           0.2391     0.9954  0.0001267    0.05299 0.0003039    0.1271
64           0.2386     0.9936  0.0001707    0.07154 0.0003846    0.1612
65           0.2379     0.9906  0.0001975      0.083 0.0005501    0.2312
66           0.2379     0.9905  0.0002093    0.08797  0.000572    0.2404
67            0.238     0.9911  0.0001896    0.07967 0.0005214     0.219
68           0.2384     0.9925  0.0001699    0.07126 0.0004444    0.1864
69           0.2393     0.9963  0.0001049    0.04386 0.0002202   0.09201
70           0.2391     0.9954  0.0001289    0.05392 0.0003095    0.1295
71           0.2386     0.9936   0.000171    0.07166 0.0003847    0.1612
72           0.2377     0.9897  0.0002073    0.08719  0.000578    0.2432
73           0.2379     0.9905  0.0002128    0.08946  0.000578     0.243
74           0.2379     0.9905  0.0002128    0.08946  0.000578     0.243
75            0.238     0.9911  0.0001896    0.07967 0.0005214     0.219
76           0.2384     0.9925  0.0001699    0.07126 0.0004444    0.1864
77           0.2393     0.9963  0.0001049    0.04386 0.0002202   0.09201
78           0.2386     0.9935  0.0001724    0.07227 0.0003851    0.1614
79           0.2376     0.9894  0.0002107    0.08865 0.0005877    0.2473
80            0.238     0.9911  0.0001896    0.07967 0.0005214     0.219
81           0.2384     0.9925  0.0001699    0.07126 0.0004444    0.1864
82           0.2393     0.9963  0.0001049    0.04386 0.0002202   0.09201
83           0.2386     0.9935   0.000178    0.07459 0.0003865     0.162
84           0.2376     0.9893  0.0002114    0.08897 0.0005899    0.2483
85            0.238     0.9911  0.0001896    0.07967 0.0005214     0.219
86           0.2384     0.9925  0.0001699    0.07126 0.0004444    0.1864
87           0.2393     0.9963  0.0001049    0.04386 0.0002202   0.09201
88           0.2376     0.9892  0.0002129    0.08962 0.0005942    0.2501
89            0.238     0.9911  0.0001896    0.07967 0.0005214     0.219
90           0.2384     0.9925  0.0001699    0.07126 0.0004444    0.1864
91           0.2393     0.9963  0.0001049    0.04386 0.0002202   0.09201
92           0.2375      0.989  0.0002143    0.09023 0.0005983    0.2519
93           0.2384     0.9925  0.0001699    0.07126 0.0004444    0.1864
94           0.2393     0.9963  0.0001049    0.04386 0.0002202   0.09201
95           0.2375      0.989  0.0002152    0.09059 0.0006007    0.2529
96           0.2384     0.9925  0.0001699    0.07126 0.0004444    0.1864
97           0.2393     0.9963  0.0001049    0.04386 0.0002202   0.09201
98           0.2375     0.9889  0.0002157    0.09082 0.0006023    0.2536
99           0.2384     0.9925  0.0001699    0.07126 0.0004444    0.1864
100          0.2393     0.9963  0.0001049    0.04386 0.0002202   0.09201
101          0.2375     0.9889  0.0002165    0.09115 0.0006044    0.2545
102          0.2384     0.9925  0.0001699    0.07126 0.0004444    0.1864
103          0.2393     0.9963  0.0001049    0.04386 0.0002202   0.09201
104          0.2375     0.9889  0.0002164    0.09113 0.0006044    0.2545
105          0.2375     0.9888   0.000217    0.09135 0.0006064    0.2553
106          0.2384     0.9925  0.0001699    0.07126 0.0004444    0.1864
107          0.2375     0.9889  0.0002164    0.09111 0.0006043    0.2545
108          0.2375     0.9888  0.0002172    0.09147 0.0006075    0.2558
109          0.2384     0.9925  0.0001699    0.07126 0.0004444    0.1864
110          0.2375     0.9889  0.0002163    0.09109 0.0006042    0.2544
111          0.2373     0.9879  0.0002282    0.09618 0.0006512    0.2745
112          0.2384     0.9925  0.0001699    0.07126 0.0004444    0.1864
113          0.2375     0.9888  0.0002163    0.09106 0.0006041    0.2544
114          0.2372     0.9878  0.0002293    0.09666 0.0006556    0.2763
115          0.2384     0.9925  0.0001699    0.07126 0.0004444    0.1864
116          0.2375     0.9888  0.0002162    0.09102  0.000604    0.2543
117          0.2372     0.9878  0.0002292    0.09659 0.0006553    0.2762
118          0.2372     0.9876  0.0002339    0.09862 0.0006733    0.2839
119          0.2384     0.9925  0.0001699    0.07126 0.0004444    0.1864
120          0.2375     0.9888  0.0002161    0.09099 0.0006039    0.2543
121          0.2372     0.9878  0.0002292    0.09659 0.0006553    0.2762
122          0.2372     0.9878  0.0002291    0.09656 0.0006551    0.2761
123          0.2371     0.9871  0.0002423     0.1022 0.0007054    0.2975
124          0.2384     0.9925  0.0001699    0.07126 0.0004444    0.1864
125          0.2375     0.9888   0.000216    0.09095 0.0006037    0.2542
126          0.2372     0.9878  0.0002292    0.09659 0.0006553    0.2762
127          0.2372     0.9878  0.0002287    0.09641 0.0006542    0.2758
128           0.237     0.9869  0.0002462     0.1038   0.00072    0.3037
129          0.2384     0.9925  0.0001699    0.07126 0.0004444    0.1864
130          0.2375     0.9888  0.0002159     0.0909 0.0006036    0.2541
131          0.2372     0.9878  0.0002292    0.09659 0.0006553    0.2762
132          0.2372     0.9878  0.0002317    0.09766 0.0006597    0.2781
133          0.2372     0.9878  0.0002267    0.09557 0.0006494    0.2737
134           0.237     0.9869  0.0002473     0.1043 0.0007243    0.3056
135          0.2384     0.9925  0.0001699    0.07126 0.0004444    0.1864
136          0.2375     0.9888  0.0002158    0.09086 0.0006034    0.2541
137          0.2372     0.9878  0.0002292    0.09659 0.0006553    0.2762
138          0.2372     0.9878  0.0002319    0.09777 0.0006602    0.2783
139          0.2372     0.9878  0.0002252    0.09494 0.0006458    0.2722
140           0.237     0.9868  0.0002486     0.1049 0.0007292    0.3077
141          0.2384     0.9925  0.0001699    0.07126 0.0004444    0.1864
142          0.2375     0.9888  0.0002156    0.09079 0.0006032     0.254
143          0.2372     0.9878  0.0002292    0.09659 0.0006553    0.2762
144          0.2372     0.9878  0.0002322    0.09787 0.0006607    0.2785
145          0.2372     0.9878  0.0002242    0.09452 0.0006434    0.2712
146           0.237     0.9867  0.0002498     0.1054 0.0007338    0.3096
147          0.2384     0.9925  0.0001699    0.07126 0.0004444    0.1864
148          0.2375     0.9888  0.0002149    0.09047  0.000602    0.2535
149          0.2372     0.9878  0.0002292    0.09659 0.0006553    0.2762
150          0.2372     0.9878  0.0002324    0.09796  0.000661    0.2786
151          0.2372     0.9877  0.0002232    0.09408 0.0006401    0.2698
152          0.2372     0.9877  0.0002347    0.09894  0.000646    0.2723
153           0.237     0.9867  0.0002512      0.106 0.0007391    0.3119
154          0.2384     0.9925  0.0001699    0.07126 0.0004444    0.1864
155          0.2375     0.9888  0.0002147     0.0904 0.0006018    0.2534
156          0.2372     0.9878  0.0002292    0.09659 0.0006553    0.2762
157          0.2372     0.9878  0.0002327    0.09809 0.0006616    0.2789
158          0.2372     0.9877  0.0002205    0.09293 0.0006312    0.2661
159          0.2372     0.9877  0.0002354    0.09922 0.0006462    0.2724
160           0.237     0.9866  0.0002517     0.1062 0.0007407    0.3126
161          0.2384     0.9925  0.0001699    0.07126 0.0004444    0.1864
162          0.2375     0.9887  0.0002275    0.09582 0.0006053    0.2549
163          0.2375     0.9888   0.000214    0.09011 0.0006001    0.2527
164          0.2372     0.9878  0.0002292    0.09659 0.0006553    0.2762
165          0.2372     0.9878  0.0002331    0.09825 0.0006623    0.2792
166          0.2372     0.9877  0.0002195    0.09253 0.0006281    0.2648
167          0.2372     0.9877   0.000236    0.09948 0.0006464    0.2725
168          0.2369     0.9865   0.000254     0.1072 0.0007495    0.3163
169          0.2384     0.9925  0.0001699    0.07126 0.0004444    0.1864
170          0.2375     0.9887  0.0002301    0.09689 0.0006061    0.2552
171          0.2375     0.9888  0.0002131    0.08971 0.0005979    0.2518
172          0.2372     0.9878  0.0002292    0.09659 0.0006553    0.2762
173          0.2372     0.9878  0.0002334    0.09838 0.0006628    0.2794
174          0.2372     0.9877  0.0002195    0.09253 0.0006281    0.2648
175          0.2372     0.9877  0.0002052    0.08652 0.0006144     0.259
176          0.2372     0.9877  0.0002362    0.09959 0.0006464    0.2725
177          0.2369     0.9865  0.0002553     0.1078 0.0007545    0.3184
178          0.2375     0.9887  0.0002354    0.09914 0.0006077    0.2559
179          0.2375     0.9888  0.0002132     0.0898 0.0005986    0.2521
180          0.2375     0.9887  0.0002049    0.08629 0.0005898    0.2484
181          0.2372     0.9878  0.0002292    0.09659 0.0006553    0.2762
182          0.2372     0.9878  0.0002337    0.09852 0.0006634    0.2796
183          0.2372     0.9877  0.0002195    0.09253 0.0006281    0.2648
184          0.2372     0.9877  0.0002037    0.08587 0.0006129    0.2584
185          0.2372     0.9877  0.0002368    0.09982 0.0006466    0.2726
186          0.2369     0.9864  0.0002563     0.1082 0.0007582      0.32
187          0.2375     0.9887   0.000214    0.09013 0.0006015    0.2533
188          0.2374     0.9886  0.0001713    0.07213 0.0005568    0.2345
189          0.2372     0.9878  0.0002292    0.09659 0.0006553    0.2762
190          0.2372     0.9877   0.000234    0.09865 0.0006639    0.2799
191          0.2372     0.9877  0.0002195    0.09253 0.0006281    0.2648
192          0.2372     0.9877  0.0002195    0.09253 0.0006281    0.2648
193          0.2372     0.9877  0.0002022    0.08524 0.0006114    0.2578
194          0.2372     0.9877  0.0002382     0.1004  0.000647    0.2727
195          0.2369     0.9864  0.0002572     0.1086 0.0007615    0.3214
196          0.2375     0.9887  0.0002154    0.09072 0.0006068    0.2555
197          0.2374     0.9886   0.000168    0.07075 0.0005536    0.2331
198          0.2374     0.9886  0.0001694    0.07133 0.0005549    0.2337
199          0.2372     0.9878  0.0002292    0.09659 0.0006553    0.2762
200          0.2372     0.9877  0.0002344     0.0988 0.0006645    0.2801
...
