powerflow/LVTestCase_copy/LVTest_VLN_Node.Txt

LINE-GROUND and LINE-LINE VOLTAGES BY BUS & NODE

Bus       Node    VLN (kV)   Angle      pu     Base kV    Node-Node   VLL (kV)  Angle      pu

SOURCEBUS 1       6.3508 /_    0.0   0.99999    11.000        1-2         11 /_   30.0   0.99999
   -      2       6.3508 /_ -120.0   0.99999    11.000        2-3         11 /_  -90.0         1
   -      3       6.3508 /_  120.0         1    11.000        3-1         11 /_  150.0   0.99999
1 ....... 1      0.23985 /_  -30.2   0.99863     0.416        1-2    0.41542 /_   -0.2    0.9986
   -      2      0.23988 /_ -150.2   0.99875     0.416        2-3    0.41546 /_ -120.1   0.99871
   -      3      0.23994 /_   89.9   0.99902     0.416        3-1    0.41562 /_  119.8   0.99909
2 ....... 1       0.2398 /_  -30.2   0.99842     0.416        1-2    0.41534 /_   -0.2   0.99842
   -      2      0.23983 /_ -150.2   0.99856     0.416        2-3     0.4154 /_ -120.1   0.99856
   -      3      0.23992 /_   89.9   0.99892     0.416        3-1    0.41555 /_  119.8   0.99892
3 ....... 1      0.23979 /_  -30.2   0.99839     0.416        1-2    0.41533 /_   -0.2    0.9984
   -      2      0.23983 /_ -150.2   0.99854     0.416        2-3    0.41539 /_ -120.1   0.99854
   -      3      0.23992 /_   89.9   0.99891     0.416        3-1    0.41554 /_  119.8    0.9989
4 ....... 1      0.23979 /_  -30.2   0.99837     0.416        1-2    0.41533 /_   -0.2   0.99838
   -      2      0.23982 /_ -150.2   0.99852     0.416        2-3    0.41539 /_ -120.1   0.99853
   -      3      0.23991 /_   89.9    0.9989     0.416        3-1    0.41554 /_  119.8   0.99889
5 ....... 1      0.23978 /_  -30.2   0.99836     0.416        1-2    0.41532 /_   -0.2   0.99836
   -      2      0.23982 /_ -150.2    0.9985     0.416        2-3    0.41538 /_ -120.1   0.99851
   -      3      0.23991 /_   89.9    0.9989     0.416        3-1    0.41553 /_  119.8   0.99887
6 ....... 1      0.23978 /_  -30.2   0.99833     0.416        1-2    0.41531 /_   -0.2   0.99834
   -      2      0.23981 /_ -150.2   0.99847     0.416        2-3    0.41537 /_ -120.1   0.99849
   -      3      0.23991 /_   89.9   0.99888     0.416        3-1    0.41552 /_  119.8   0.99885
7 ....... 1      0.23931 /_  -30.1   0.99638     0.416        1-2    0.41462 /_   -0.1   0.99667
   -      2      0.23939 /_ -150.2   0.99672     0.416        2-3    0.41479 /_ -120.1   0.99709
   -      3       0.2397 /_   89.9   0.99799     0.416        3-1    0.41489 /_  119.8   0.99733
8 ....... 1      0.23929 /_  -30.1    0.9963     0.416        1-2    0.41459 /_   -0.1    0.9966
   -      2      0.23937 /_ -150.2   0.99664     0.416        2-3    0.41477 /_ -120.1   0.99703
   -      3      0.23969 /_   89.9   0.99795     0.416        3-1    0.41486 /_  119.8   0.99726
9 ....... 1      0.23927 /_  -30.1   0.99623     0.416        1-2    0.41456 /_   -0.1   0.99654
   -      2      0.23936 /_ -150.2   0.99658     0.416        2-3    0.41474 /_ -120.1   0.99698
   -      3      0.23968 /_   89.9   0.99792     0.416        3-1    0.41484 /_  119.8    0.9972
10 ...... 1      0.23926 /_  -30.1   0.99616     0.416        1-2    0.41454 /_   -0.1   0.99648
   -      2      0.23934 /_ -150.2   0.99652     0.416        2-3    0.41472 /_ -120.1   0.99693
   -      3      0.23967 /_   89.9   0.99789     0.416        3-1    0.41482 /_  119.8   0.99715
11 ...... 1      0.23924 /_  -30.1   0.99611     0.416        1-2    0.41452 /_   -0.1   0.99644
   -      2      0.23933 /_ -150.2   0.99648     0.416        2-3    0.41471 /_ -120.1    0.9969
   -      3      0.23967 /_   89.9   0.99787     0.416        3-1     0.4148 /_  119.8   0.99712
12 ...... 1      0.23923 /_  -30.1   0.99607     0.416        1-2     0.4145 /_   -0.1    0.9964
   -      2      0.23932 /_ -150.2   0.99644     0.416        2-3     0.4147 /_ -120.1   0.99687
   -      3      0.23966 /_   89.9   0.99785     0.416        3-1    0.41479 /_  119.8   0.99708
13 ...... 1      0.23923 /_  -30.1   0.99604     0.416        1-2    0.41449 /_   -0.1   0.99638
   -      2      0.23932 /_ -150.2   0.99641     0.416        2-3    0.41469 /_ -120.1   0.99685
   -      3      0.23966 /_   89.9   0.99783     0.416        3-1    0.41478 /_  119.8   0.99706
14 ...... 1      0.23921 /_  -30.1   0.99597     0.416        1-2    0.41447 /_   -0.1   0.99632
   -      2       0.2393 /_ -150.2   0.99635     0.416        2-3    0.41467 /_ -120.1    0.9968
   -      3      0.23965 /_   89.9    0.9978     0.416        3-1    0.41475 /_  119.8   0.99701
15 ...... 1      0.23908 /_  -30.1   0.99542     0.416        1-2    0.41427 /_   -0.1   0.99585
   -      2      0.23918 /_ -150.2   0.99585     0.416        2-3     0.4145 /_ -120.1    0.9964
   -      3      0.23959 /_   89.9   0.99755     0.416        3-1    0.41457 /_  119.8   0.99657
16 ...... 1      0.23908 /_  -30.1   0.99542     0.416        1-2    0.41427 /_   -0.1   0.99585
   -      2      0.23918 /_ -150.2   0.99585     0.416        2-3     0.4145 /_ -120.1    0.9964
   -      3      0.23959 /_   89.9   0.99755     0.416        3-1    0.41457 /_  119.8   0.99657
17 ...... 1      0.23892 /_  -30.1   0.99475     0.416        1-2    0.41403 /_   -0.1   0.99527
   -      2      0.23904 /_ -150.2   0.99525     0.416        2-3     0.4143 /_ -120.1   0.99592
   -      3      0.23952 /_   89.9   0.99724     0.416        3-1    0.41436 /_  119.9   0.99605
18 ...... 1      0.23908 /_  -30.1   0.99542     0.416        1-2    0.41427 /_   -0.1   0.99585
   -      2      0.23918 /_ -150.2   0.99585     0.416        2-3     0.4145 /_ -120.1    0.9964
   -      3      0.23959 /_   89.9   0.99755     0.416        3-1    0.41457 /_  119.8   0.99657
19 ...... 1      0.23891 /_  -30.1   0.99471     0.416        1-2    0.41402 /_   -0.1   0.99524
   -      2      0.23903 /_ -150.2   0.99521     0.416        2-3    0.41429 /_ -120.1   0.99589
   -      3      0.23951 /_   89.9   0.99722     0.416        3-1    0.41434 /_  119.9   0.99601
20 ...... 1      0.23908 /_  -30.1   0.99542     0.416        1-2    0.41427 /_   -0.1   0.99585
   -      2      0.23918 /_ -150.2   0.99585     0.416        2-3     0.4145 /_ -120.1    0.9964
   -      3      0.23959 /_   89.9   0.99755     0.416        3-1    0.41457 /_  119.8   0.99657
21 ...... 1      0.23889 /_  -30.1   0.99466     0.416        1-2      0.414 /_   -0.1   0.99519
   -      2      0.23902 /_ -150.2   0.99516     0.416        2-3    0.41427 /_ -120.1   0.99585
   -      3       0.2395 /_   89.9    0.9972     0.416        3-1    0.41432 /_  119.9   0.99597
22 ...... 1      0.23908 /_  -30.1   0.99542     0.416        1-2    0.41427 /_   -0.1   0.99585
   -      2      0.23918 /_ -150.2   0.99585     0.416        2-3     0.4145 /_ -120.1    0.9964
   -      3      0.23959 /_   89.9   0.99755     0.416        3-1    0.41457 /_  119.8   0.99657
23 ...... 1      0.23887 /_  -30.1   0.99457     0.416        1-2    0.41397 /_   -0.1   0.99512
   -      2        0.239 /_ -150.2   0.99508     0.416        2-3    0.41425 /_ -120.1   0.99579
   -      3      0.23949 /_   89.9   0.99716     0.416        3-1     0.4143 /_  119.9   0.99591
24 ...... 1      0.23908 /_  -30.1   0.99542     0.416        1-2    0.41427 /_   -0.1   0.99585
   -      2      0.23918 /_ -150.2   0.99585     0.416        2-3     0.4145 /_ -120.1    0.9964
   -      3      0.23959 /_   89.9   0.99755     0.416        3-1    0.41457 /_  119.8   0.99657
25 ...... 1      0.23884 /_  -30.1   0.99442     0.416        1-2    0.41391 /_   -0.1   0.99499
   -      2      0.23896 /_ -150.2   0.99495     0.416        2-3     0.4142 /_ -120.1   0.99568
   -      3      0.23948 /_   89.9   0.99709     0.416        3-1    0.41425 /_  119.9   0.99579
26 ...... 1      0.23908 /_  -30.1   0.99542     0.416        1-2    0.41427 /_   -0.1   0.99585
   -      2      0.23918 /_ -150.2   0.99585     0.416        2-3     0.4145 /_ -120.1    0.9964
   -      3      0.23959 /_   89.9   0.99755     0.416        3-1    0.41457 /_  119.8   0.99657
27 ...... 1      0.23878 /_  -30.1   0.99417     0.416        1-2    0.41387 /_   -0.1   0.99488
   -      2      0.23896 /_ -150.2   0.99495     0.416        2-3     0.4142 /_ -120.1   0.99568
   -      3      0.23948 /_   89.9   0.99709     0.416        3-1    0.41419 /_  119.8   0.99565
28 ...... 1      0.23844 /_  -30.1   0.99279     0.416        1-2    0.41326 /_   -0.1   0.99342
   -      2      0.23854 /_ -150.2   0.99319     0.416        2-3    0.41363 /_ -120.1    0.9943
   -      3      0.23924 /_   89.9   0.99611     0.416        3-1    0.41366 /_  119.9   0.99437
29 ...... 1      0.23908 /_  -30.1   0.99542     0.416        1-2    0.41427 /_   -0.1   0.99585
   -      2      0.23918 /_ -150.2   0.99585     0.416        2-3     0.4145 /_ -120.1    0.9964
   -      3      0.23959 /_   89.9   0.99755     0.416        3-1    0.41457 /_  119.8   0.99657
30 ...... 1      0.23877 /_  -30.1   0.99414     0.416        1-2    0.41387 /_   -0.1   0.99487
   -      2      0.23896 /_ -150.2   0.99495     0.416        2-3     0.4142 /_ -120.1   0.99568
   -      3      0.23948 /_   89.9   0.99709     0.416        3-1    0.41418 /_  119.8   0.99563
31 ...... 1      0.23877 /_  -30.1   0.99414     0.416        1-2    0.41387 /_   -0.1   0.99487
   -      2      0.23896 /_ -150.2   0.99495     0.416        2-3     0.4142 /_ -120.1   0.99568
   -      3      0.23948 /_   89.9   0.99709     0.416        3-1    0.41418 /_  119.8   0.99563
32 ...... 1      0.23834 /_  -30.1   0.99235     0.416        1-2    0.41309 /_   -0.1     0.993
   -      2      0.23843 /_ -150.2   0.99272     0.416        2-3    0.41347 /_ -120.1   0.99393
   -      3      0.23918 /_   89.9   0.99585     0.416        3-1     0.4135 /_  119.9   0.99399
33 ...... 1      0.23908 /_  -30.1   0.99542     0.416        1-2    0.41427 /_   -0.1   0.99585
   -      2      0.23918 /_ -150.2   0.99585     0.416        2-3     0.4145 /_ -120.1    0.9964
   -      3      0.23959 /_   89.9   0.99755     0.416        3-1    0.41457 /_  119.8   0.99657
34 ...... 1      0.23875 /_  -30.1   0.99406     0.416        1-2    0.41385 /_   -0.1   0.99484
   -      2      0.23896 /_ -150.2   0.99495     0.416        2-3     0.4142 /_ -120.1   0.99568
   -      3      0.23948 /_   89.9   0.99709     0.416        3-1    0.41416 /_  119.8   0.99558
35 ...... 1      0.23877 /_  -30.1   0.99414     0.416        1-2    0.41387 /_   -0.1   0.99487
   -      2      0.23896 /_ -150.2   0.99495     0.416        2-3     0.4142 /_ -120.1   0.99568
   -      3      0.23948 /_   89.9   0.99709     0.416        3-1    0.41418 /_  119.8   0.99563
36 ...... 1      0.23834 /_  -30.1   0.99235     0.416        1-2    0.41303 /_   -0.1   0.99286
   -      2      0.23837 /_ -150.2   0.99248     0.416        2-3    0.41343 /_ -120.1   0.99383
   -      3      0.23918 /_   89.9   0.99585     0.416        3-1     0.4135 /_  119.9   0.99399
37 ...... 1      0.23801 /_  -30.1   0.99096     0.416        1-2    0.41259 /_   -0.1    0.9918
   -      2      0.23814 /_ -150.2   0.99153     0.416        2-3    0.41304 /_ -120.1   0.99288
   -      3      0.23899 /_   89.9   0.99504     0.416        3-1    0.41303 /_  119.9   0.99285
38 ...... 1      0.23908 /_  -30.1   0.99542     0.416        1-2    0.41427 /_   -0.1   0.99585
   -      2      0.23918 /_ -150.2   0.99585     0.416        2-3     0.4145 /_ -120.1    0.9964
   -      3      0.23959 /_   89.9   0.99755     0.416        3-1    0.41457 /_  119.8   0.99657
39 ...... 1      0.23877 /_  -30.1   0.99414     0.416        1-2    0.41387 /_   -0.1   0.99487
   -      2      0.23896 /_ -150.2   0.99495     0.416        2-3     0.4142 /_ -120.1   0.99568
   -      3      0.23948 /_   89.9   0.99709     0.416        3-1    0.41418 /_  119.8   0.99563
40 ...... 1      0.23834 /_  -30.1   0.99235     0.416        1-2    0.41303 /_   -0.1   0.99286
   -      2      0.23837 /_ -150.2   0.99247     0.416        2-3    0.41343 /_ -120.1   0.99382
   -      3      0.23918 /_   89.9   0.99585     0.416        3-1     0.4135 /_  119.9   0.99399
41 ...... 1      0.23834 /_  -30.1   0.99235     0.416        1-2    0.41302 /_   -0.1   0.99284
   -      2      0.23836 /_ -150.2   0.99244     0.416        2-3    0.41343 /_ -120.1   0.99381
   -      3      0.23918 /_   89.9   0.99585     0.416        3-1     0.4135 /_  119.9   0.99399
42 ...... 1      0.23777 /_  -30.0   0.98999     0.416        1-2    0.41225 /_   -0.1   0.99097
   -      2      0.23795 /_ -150.2   0.99071     0.416        2-3    0.41273 /_ -120.1   0.99215
   -      3      0.23885 /_   89.9   0.99448     0.416        3-1     0.4127 /_  119.9   0.99206
43 ...... 1      0.23801 /_  -30.1   0.99096     0.416        1-2    0.41259 /_   -0.1    0.9918
   -      2      0.23814 /_ -150.2   0.99153     0.416        2-3    0.41304 /_ -120.1   0.99288
   -      3      0.23899 /_   89.9   0.99504     0.416        3-1    0.41303 /_  119.9   0.99285
44 ...... 1      0.23908 /_  -30.1   0.99542     0.416        1-2    0.41427 /_   -0.1   0.99585
   -      2      0.23918 /_ -150.2   0.99585     0.416        2-3     0.4145 /_ -120.1    0.9964
   -      3      0.23959 /_   89.9   0.99755     0.416        3-1    0.41457 /_  119.8   0.99657
45 ...... 1      0.23877 /_  -30.1   0.99413     0.416        1-2    0.41386 /_   -0.1   0.99487
   -      2      0.23896 /_ -150.2   0.99495     0.416        2-3     0.4142 /_ -120.1   0.99568
   -      3      0.23948 /_   89.9   0.99709     0.416        3-1    0.41418 /_  119.8   0.99563
46 ...... 1      0.23834 /_  -30.1   0.99235     0.416        1-2    0.41303 /_   -0.1   0.99285
   -      2      0.23837 /_ -150.2   0.99247     0.416        2-3    0.41343 /_ -120.1   0.99382
   -      3      0.23918 /_   89.9   0.99585     0.416        3-1     0.4135 /_  119.9   0.99399
47 ...... 1      0.23834 /_  -30.1   0.99235     0.416        1-2      0.413 /_   -0.1   0.99279
   -      2      0.23834 /_ -150.2   0.99235     0.416        2-3    0.41341 /_ -120.1   0.99377
   -      3      0.23918 /_   89.9   0.99585     0.416        3-1     0.4135 /_  119.9   0.99399
48 ...... 1       0.2376 /_  -30.0   0.98926     0.416        1-2    0.41199 /_   -0.1   0.99035
   -      2       0.2378 /_ -150.2   0.99009     0.416        2-3     0.4125 /_ -120.0   0.99159
   -      3      0.23875 /_   89.9   0.99405     0.416        3-1    0.41245 /_  119.9   0.99146
49 ...... 1      0.23801 /_  -30.1   0.99096     0.416        1-2    0.41259 /_   -0.1    0.9918
   -      2      0.23814 /_ -150.2   0.99153     0.416        2-3    0.41304 /_ -120.1   0.99288
   -      3      0.23899 /_   89.9   0.99504     0.416        3-1    0.41303 /_  119.9   0.99285
50 ...... 1      0.23908 /_  -30.1   0.99542     0.416        1-2    0.41427 /_   -0.1   0.99585
   -      2      0.23918 /_ -150.2   0.99585     0.416        2-3     0.4145 /_ -120.1    0.9964
   -      3      0.23959 /_   89.9   0.99755     0.416        3-1    0.41457 /_  119.8   0.99657
51 ...... 1      0.23877 /_  -30.1   0.99413     0.416        1-2    0.41386 /_   -0.1   0.99487
   -      2      0.23896 /_ -150.2   0.99495     0.416        2-3     0.4142 /_ -120.1   0.99568
   -      3      0.23948 /_   89.9   0.99709     0.416        3-1    0.41418 /_  119.8   0.99562
52 ...... 1      0.23834 /_  -30.1   0.99235     0.416        1-2    0.41303 /_   -0.1   0.99285
   -      2      0.23837 /_ -150.2   0.99246     0.416        2-3    0.41343 /_ -120.1   0.99382
   -      3      0.23918 /_   89.9   0.99585     0.416        3-1     0.4135 /_  119.9   0.99399
53 ...... 1      0.23757 /_  -30.0   0.98916     0.416        1-2    0.41195 /_   -0.1   0.99026
   -      2      0.23777 /_ -150.2      0.99     0.416        2-3    0.41247 /_ -120.0   0.99151
   -      3      0.23874 /_   89.9   0.99399     0.416        3-1    0.41241 /_  119.9   0.99138
54 ...... 1       0.2376 /_  -30.0   0.98926     0.416        1-2    0.41199 /_   -0.1   0.99035
   -      2       0.2378 /_ -150.2   0.99009     0.416        2-3     0.4125 /_ -120.0   0.99159
   -      3      0.23875 /_   89.9   0.99405     0.416        3-1    0.41245 /_  119.9   0.99146
55 ...... 1      0.23801 /_  -30.1   0.99096     0.416        1-2    0.41259 /_   -0.1    0.9918
   -      2      0.23814 /_ -150.2   0.99153     0.416        2-3    0.41304 /_ -120.1   0.99288
   -      3      0.23899 /_   89.9   0.99504     0.416        3-1    0.41303 /_  119.9   0.99285
56 ...... 1      0.23908 /_  -30.1   0.99542     0.416        1-2    0.41427 /_   -0.1   0.99585
   -      2      0.23918 /_ -150.2   0.99585     0.416        2-3     0.4145 /_ -120.1    0.9964
   -      3      0.23959 /_   89.9   0.99755     0.416        3-1    0.41457 /_  119.8   0.99657
57 ...... 1      0.23877 /_  -30.1   0.99412     0.416        1-2    0.41386 /_   -0.1   0.99486
   -      2      0.23896 /_ -150.2   0.99495     0.416        2-3     0.4142 /_ -120.1   0.99568
   -      3      0.23948 /_   89.9   0.99709     0.416        3-1    0.41418 /_  119.8   0.99562
58 ...... 1      0.23834 /_  -30.1   0.99235     0.416        1-2    0.41303 /_   -0.1   0.99285
   -      2      0.23837 /_ -150.2   0.99246     0.416        2-3    0.41343 /_ -120.1   0.99382
   -      3      0.23918 /_   89.9   0.99585     0.416        3-1     0.4135 /_  119.9   0.99399
59 ...... 1      0.23746 /_  -30.0   0.98868     0.416        1-2    0.41178 /_   -0.1   0.98985
   -      2      0.23768 /_ -150.2   0.98959     0.416        2-3    0.41232 /_ -120.0   0.99115
   -      3      0.23867 /_   89.9   0.99372     0.416        3-1    0.41225 /_  119.9   0.99099
60 ...... 1       0.2376 /_  -30.0   0.98926     0.416        1-2    0.41199 /_   -0.1   0.99035
   -      2       0.2378 /_ -150.2   0.99009     0.416        2-3     0.4125 /_ -120.0   0.99159
   -      3      0.23875 /_   89.9   0.99405     0.416        3-1    0.41245 /_  119.9   0.99146
61 ...... 1      0.23801 /_  -30.1   0.99096     0.416        1-2    0.41259 /_   -0.1    0.9918
   -      2      0.23814 /_ -150.2   0.99153     0.416        2-3    0.41304 /_ -120.1   0.99288
   -      3      0.23899 /_   89.9   0.99504     0.416        3-1    0.41303 /_  119.9   0.99285
62 ...... 1      0.23908 /_  -30.1   0.99542     0.416        1-2    0.41427 /_   -0.1   0.99585
   -      2      0.23918 /_ -150.2   0.99585     0.416        2-3     0.4145 /_ -120.1    0.9964
   -      3      0.23959 /_   89.9   0.99755     0.416        3-1    0.41457 /_  119.8   0.99657
63 ...... 1      0.23876 /_  -30.1    0.9941     0.416        1-2    0.41386 /_   -0.1   0.99485
   -      2      0.23896 /_ -150.2   0.99495     0.416        2-3     0.4142 /_ -120.1   0.99568
   -      3      0.23948 /_   89.9   0.99709     0.416        3-1    0.41417 /_  119.8   0.99561
64 ...... 1      0.23834 /_  -30.1   0.99235     0.416        1-2    0.41303 /_   -0.1   0.99285
   -      2      0.23837 /_ -150.2   0.99246     0.416        2-3    0.41343 /_ -120.1   0.99382
   -      3      0.23918 /_   89.9   0.99585     0.416        3-1     0.4135 /_  119.9   0.99399
65 ...... 1      0.23744 /_  -30.0    0.9886     0.416        1-2    0.41174 /_   -0.1   0.98977
   -      2      0.23766 /_ -150.2   0.98951     0.416        2-3    0.41229 /_ -120.0   0.99108
   -      3      0.23865 /_   89.9   0.99365     0.416        3-1    0.41222 /_  119.9   0.99091
66 ...... 1      0.23738 /_  -30.0   0.98834     0.416        1-2    0.41172 /_   -0.1    0.9897
   -      2      0.23768 /_ -150.2   0.98959     0.416        2-3    0.41232 /_ -120.0   0.99115
   -      3      0.23867 /_   89.9   0.99372     0.416        3-1    0.41217 /_  119.9   0.99079
...
