powerflow/LVTestCase_copy/LVTest_VLN_elem.Txt

NODE-GROUND VOLTAGES BY CIRCUIT ELEMENT

Power Delivery Elements

Bus       (node ref)  Phase    Magnitude, kV (pu)    Angle

ELEMENT = "Vsource.SOURCE"
SOURCEBUS  (  1)    1           6.3508 (       1) /_    0.0
SOURCEBUS  (  2)    2           6.3508 (       1) /_ -120.0
SOURCEBUS  (  3)    3           6.3508 (       1) /_  120.0
------------
SOURCEBUS  (  0)    1                0 (       0) /_    0.0
SOURCEBUS  (  0)    2                0 (       0) /_    0.0
SOURCEBUS  (  0)    3                0 (       0) /_    0.0

ELEMENT = "Line.LINE1"
1          (  4)    1          0.23985 (  0.9986) /_  -30.2
1          (  5)    2          0.23988 (  0.9987) /_ -150.2
1          (  6)    3          0.23994 (   0.999) /_   89.9
------------
2          (  7)    1           0.2398 (  0.9984) /_  -30.2
2          (  8)    2          0.23983 (  0.9986) /_ -150.2
2          (  9)    3          0.23992 (  0.9989) /_   89.9

ELEMENT = "Line.LINE2"
2          (  7)    1           0.2398 (  0.9984) /_  -30.2
2          (  8)    2          0.23983 (  0.9986) /_ -150.2
2          (  9)    3          0.23992 (  0.9989) /_   89.9
------------
3          ( 10)    1          0.23979 (  0.9984) /_  -30.2
3          ( 11)    2          0.23983 (  0.9985) /_ -150.2
3          ( 12)    3          0.23992 (  0.9989) /_   89.9

ELEMENT = "Line.LINE3"
3          ( 10)    1          0.23979 (  0.9984) /_  -30.2
3          ( 11)    2          0.23983 (  0.9985) /_ -150.2
3          ( 12)    3          0.23992 (  0.9989) /_   89.9
------------
4          ( 13)    1          0.23979 (  0.9984) /_  -30.2
4          ( 14)    2          0.23982 (  0.9985) /_ -150.2
4          ( 15)    3          0.23991 (  0.9989) /_   89.9

ELEMENT = "Line.LINE4"
4          ( 13)    1          0.23979 (  0.9984) /_  -30.2
4          ( 14)    2          0.23982 (  0.9985) /_ -150.2
4          ( 15)    3          0.23991 (  0.9989) /_   89.9
------------
5          ( 16)    1          0.23978 (  0.9984) /_  -30.2
5          ( 17)    2          0.23982 (  0.9985) /_ -150.2
5          ( 18)    3          0.23991 (  0.9989) /_   89.9

ELEMENT = "Line.LINE5"
5          ( 16)    1          0.23978 (  0.9984) /_  -30.2
5          ( 17)    2          0.23982 (  0.9985) /_ -150.2
5          ( 18)    3          0.23991 (  0.9989) /_   89.9
------------
6          ( 19)    1          0.23978 (  0.9983) /_  -30.2
6          ( 20)    2          0.23981 (  0.9985) /_ -150.2
6          ( 21)    3          0.23991 (  0.9989) /_   89.9

ELEMENT = "Line.LINE6"
6          ( 19)    1          0.23978 (  0.9983) /_  -30.2
6          ( 20)    2          0.23981 (  0.9985) /_ -150.2
6          ( 21)    3          0.23991 (  0.9989) /_   89.9
------------
7          ( 22)    1          0.23931 (  0.9964) /_  -30.1
7          ( 23)    2          0.23939 (  0.9967) /_ -150.2
7          ( 24)    3           0.2397 (   0.998) /_   89.9

ELEMENT = "Line.LINE7"
7          ( 22)    1          0.23931 (  0.9964) /_  -30.1
7          ( 23)    2          0.23939 (  0.9967) /_ -150.2
7          ( 24)    3           0.2397 (   0.998) /_   89.9
------------
8          ( 25)    1          0.23929 (  0.9963) /_  -30.1
8          ( 26)    2          0.23937 (  0.9966) /_ -150.2
8          ( 27)    3          0.23969 (   0.998) /_   89.9

ELEMENT = "Line.LINE8"
8          ( 25)    1          0.23929 (  0.9963) /_  -30.1
8          ( 26)    2          0.23937 (  0.9966) /_ -150.2
8          ( 27)    3          0.23969 (   0.998) /_   89.9
------------
9          ( 28)    1          0.23927 (  0.9962) /_  -30.1
9          ( 29)    2          0.23936 (  0.9966) /_ -150.2
9          ( 30)    3          0.23968 (  0.9979) /_   89.9

ELEMENT = "Line.LINE9"
9          ( 28)    1          0.23927 (  0.9962) /_  -30.1
9          ( 29)    2          0.23936 (  0.9966) /_ -150.2
9          ( 30)    3          0.23968 (  0.9979) /_   89.9
------------
10         ( 31)    1          0.23926 (  0.9962) /_  -30.1
10         ( 32)    2          0.23934 (  0.9965) /_ -150.2
10         ( 33)    3          0.23967 (  0.9979) /_   89.9

ELEMENT = "Line.LINE10"
10         ( 31)    1          0.23926 (  0.9962) /_  -30.1
10         ( 32)    2          0.23934 (  0.9965) /_ -150.2
10         ( 33)    3          0.23967 (  0.9979) /_   89.9
------------
11         ( 34)    1          0.23924 (  0.9961) /_  -30.1
11         ( 35)    2          0.23933 (  0.9965) /_ -150.2
11         ( 36)    3          0.23967 (  0.9979) /_   89.9

ELEMENT = "Line.LINE11"
11         ( 34)    1          0.23924 (  0.9961) /_  -30.1
11         ( 35)    2          0.23933 (  0.9965) /_ -150.2
11         ( 36)    3          0.23967 (  0.9979) /_   89.9
------------
12         ( 37)    1          0.23923 (  0.9961) /_  -30.1
12         ( 38)    2          0.23932 (  0.9964) /_ -150.2
12         ( 39)    3          0.23966 (  0.9978) /_   89.9

ELEMENT = "Line.LINE12"
12         ( 37)    1          0.23923 (  0.9961) /_  -30.1
12         ( 38)    2          0.23932 (  0.9964) /_ -150.2
12         ( 39)    3          0.23966 (  0.9978) /_   89.9
------------
13         ( 40)    1          0.23923 (   0.996) /_  -30.1
13         ( 41)    2          0.23932 (  0.9964) /_ -150.2
13         ( 42)    3          0.23966 (  0.9978) /_   89.9

ELEMENT = "Line.LINE13"
13         ( 40)    1          0.23923 (   0.996) /_  -30.1
13         ( 41)    2          0.23932 (  0.9964) /_ -150.2
13         ( 42)    3          0.23966 (  0.9978) /_   89.9
------------
14         ( 43)    1          0.23921 (   0.996) /_  -30.1
14         ( 44)    2           0.2393 (  0.9964) /_ -150.2
14         ( 45)    3          0.23965 (  0.9978) /_   89.9

ELEMENT = "Line.LINE14"
14         ( 43)    1          0.23921 (   0.996) /_  -30.1
14         ( 44)    2           0.2393 (  0.9964) /_ -150.2
14         ( 45)    3          0.23965 (  0.9978) /_   89.9
------------
15         ( 46)    1          0.23908 (  0.9954) /_  -30.1
15         ( 47)    2          0.23918 (  0.9959) /_ -150.2
15         ( 48)    3          0.23959 (  0.9975) /_   89.9

ELEMENT = "Line.LINE15"
15         ( 46)    1          0.23908 (  0.9954) /_  -30.1
15         ( 47)    2          0.23918 (  0.9959) /_ -150.2
15         ( 48)    3          0.23959 (  0.9975) /_   89.9
------------
16         ( 49)    1          0.23908 (  0.9954) /_  -30.1
16         ( 50)    2          0.23918 (  0.9959) /_ -150.2
16         ( 51)    3          0.23959 (  0.9975) /_   89.9

ELEMENT = "Line.LINE16"
15         ( 46)    1          0.23908 (  0.9954) /_  -30.1
15         ( 47)    2          0.23918 (  0.9959) /_ -150.2
15         ( 48)    3          0.23959 (  0.9975) /_   89.9
------------
17         ( 52)    1          0.23892 (  0.9948) /_  -30.1
17         ( 53)    2          0.23904 (  0.9952) /_ -150.2
17         ( 54)    3          0.23952 (  0.9972) /_   89.9

ELEMENT = "Line.LINE17"
16         ( 49)    1          0.23908 (  0.9954) /_  -30.1
16         ( 50)    2          0.23918 (  0.9959) /_ -150.2
16         ( 51)    3          0.23959 (  0.9975) /_   89.9
------------
18         ( 55)    1          0.23908 (  0.9954) /_  -30.1
18         ( 56)    2          0.23918 (  0.9959) /_ -150.2
18         ( 57)    3          0.23959 (  0.9975) /_   89.9

ELEMENT = "Line.LINE18"
17         ( 52)    1          0.23892 (  0.9948) /_  -30.1
17         ( 53)    2          0.23904 (  0.9952) /_ -150.2
17         ( 54)    3          0.23952 (  0.9972) /_   89.9
------------
19         ( 58)    1          0.23891 (  0.9947) /_  -30.1
19         ( 59)    2          0.23903 (  0.9952) /_ -150.2
19         ( 60)    3          0.23951 (  0.9972) /_   89.9

ELEMENT = "Line.LINE19"
18         ( 55)    1          0.23908 (  0.9954) /_  -30.1
18         ( 56)    2          0.23918 (  0.9959) /_ -150.2
18         ( 57)    3          0.23959 (  0.9975) /_   89.9
------------
20         ( 61)    1          0.23908 (  0.9954) /_  -30.1
20         ( 62)    2          0.23918 (  0.9959) /_ -150.2
20         ( 63)    3          0.23959 (  0.9975) /_   89.9

ELEMENT = "Line.LINE20"
19         ( 58)    1          0.23891 (  0.9947) /_  -30.1
19         ( 59)    2          0.23903 (  0.9952) /_ -150.2
19         ( 60)    3          0.23951 (  0.9972) /_   89.9
------------
21         ( 64)    1          0.23889 (  0.9947) /_  -30.1
21         ( 65)    2          0.23902 (  0.9952) /_ -150.2
21         ( 66)    3           0.2395 (  0.9972) /_   89.9

ELEMENT = "Line.LINE21"
20         ( 61)    1          0.23908 (  0.9954) /_  -30.1
20         ( 62)    2          0.23918 (  0.9959) /_ -150.2
20         ( 63)    3          0.23959 (  0.9975) /_   89.9
------------
22         ( 67)    1          0.23908 (  0.9954) /_  -30.1
22         ( 68)    2          0.23918 (  0.9959) /_ -150.2
22         ( 69)    3          0.23959 (  0.9975) /_   89.9

ELEMENT = "Line.LINE22"
21         ( 64)    1          0.23889 (  0.9947) /_  -30.1
21         ( 65)    2          0.23902 (  0.9952) /_ -150.2
21         ( 66)    3           0.2395 (  0.9972) /_   89.9
------------
23         ( 70)    1          0.23887 (  0.9946) /_  -30.1
23         ( 71)    2            0.239 (  0.9951) /_ -150.2
23         ( 72)    3          0.23949 (  0.9972) /_   89.9

ELEMENT = "Line.LINE23"
22         ( 67)    1          0.23908 (  0.9954) /_  -30.1
22         ( 68)    2          0.23918 (  0.9959) /_ -150.2
22         ( 69)    3          0.23959 (  0.9975) /_   89.9
------------
24         ( 73)    1          0.23908 (  0.9954) /_  -30.1
24         ( 74)    2          0.23918 (  0.9959) /_ -150.2
24         ( 75)    3          0.23959 (  0.9975) /_   89.9

ELEMENT = "Line.LINE24"
23         ( 70)    1          0.23887 (  0.9946) /_  -30.1
23         ( 71)    2            0.239 (  0.9951) /_ -150.2
23         ( 72)    3          0.23949 (  0.9972) /_   89.9
------------
25         ( 76)    1          0.23884 (  0.9944) /_  -30.1
25         ( 77)    2          0.23896 (  0.9949) /_ -150.2
25         ( 78)    3          0.23948 (  0.9971) /_   89.9

ELEMENT = "Line.LINE25"
24         ( 73)    1          0.23908 (  0.9954) /_  -30.1
24         ( 74)    2          0.23918 (  0.9959) /_ -150.2
24         ( 75)    3          0.23959 (  0.9975) /_   89.9
------------
26         ( 79)    1          0.23908 (  0.9954) /_  -30.1
26         ( 80)    2          0.23918 (  0.9959) /_ -150.2
26         ( 81)    3          0.23959 (  0.9975) /_   89.9

ELEMENT = "Line.LINE26"
25         ( 76)    1          0.23884 (  0.9944) /_  -30.1
25         ( 77)    2          0.23896 (  0.9949) /_ -150.2
25         ( 78)    3          0.23948 (  0.9971) /_   89.9
------------
27         ( 82)    1          0.23878 (  0.9942) /_  -30.1
27         ( 83)    2          0.23896 (  0.9949) /_ -150.2
27         ( 84)    3          0.23948 (  0.9971) /_   89.9

ELEMENT = "Line.LINE27"
25         ( 76)    1          0.23884 (  0.9944) /_  -30.1
25         ( 77)    2          0.23896 (  0.9949) /_ -150.2
25         ( 78)    3          0.23948 (  0.9971) /_   89.9
------------
28         ( 85)    1          0.23844 (  0.9928) /_  -30.1
28         ( 86)    2          0.23854 (  0.9932) /_ -150.2
28         ( 87)    3          0.23924 (  0.9961) /_   89.9

ELEMENT = "Line.LINE28"
26         ( 79)    1          0.23908 (  0.9954) /_  -30.1
26         ( 80)    2          0.23918 (  0.9959) /_ -150.2
26         ( 81)    3          0.23959 (  0.9975) /_   89.9
------------
29         ( 88)    1          0.23908 (  0.9954) /_  -30.1
29         ( 89)    2          0.23918 (  0.9959) /_ -150.2
29         ( 90)    3          0.23959 (  0.9975) /_   89.9

ELEMENT = "Line.LINE29"
27         ( 82)    1          0.23878 (  0.9942) /_  -30.1
27         ( 83)    2          0.23896 (  0.9949) /_ -150.2
27         ( 84)    3          0.23948 (  0.9971) /_   89.9
------------
30         ( 91)    1          0.23877 (  0.9941) /_  -30.1
30         ( 92)    2          0.23896 (  0.9949) /_ -150.2
30         ( 93)    3          0.23948 (  0.9971) /_   89.9

ELEMENT = "Line.LINE30"
27         ( 82)    1          0.23878 (  0.9942) /_  -30.1
27         ( 83)    2          0.23896 (  0.9949) /_ -150.2
27         ( 84)    3          0.23948 (  0.9971) /_   89.9
------------
31         ( 94)    1          0.23877 (  0.9941) /_  -30.1
31         ( 95)    2          0.23896 (  0.9949) /_ -150.2
31         ( 96)    3          0.23948 (  0.9971) /_   89.9

ELEMENT = "Line.LINE31"
28         ( 85)    1          0.23844 (  0.9928) /_  -30.1
28         ( 86)    2          0.23854 (  0.9932) /_ -150.2
28         ( 87)    3          0.23924 (  0.9961) /_   89.9
------------
32         ( 97)    1          0.23834 (  0.9924) /_  -30.1
32         ( 98)    2          0.23843 (  0.9927) /_ -150.2
32         ( 99)    3          0.23918 (  0.9958) /_   89.9

ELEMENT = "Line.LINE32"
29         ( 88)    1          0.23908 (  0.9954) /_  -30.1
29         ( 89)    2          0.23918 (  0.9959) /_ -150.2
29         ( 90)    3          0.23959 (  0.9975) /_   89.9
------------
33         (100)    1          0.23908 (  0.9954) /_  -30.1
33         (101)    2          0.23918 (  0.9959) /_ -150.2
33         (102)    3          0.23959 (  0.9975) /_   89.9

ELEMENT = "Line.LINE33"
30         ( 91)    1          0.23877 (  0.9941) /_  -30.1
30         ( 92)    2          0.23896 (  0.9949) /_ -150.2
30         ( 93)    3          0.23948 (  0.9971) /_   89.9
------------
34         (103)    1          0.23875 (  0.9941) /_  -30.1
34         (104)    2          0.23896 (  0.9949) /_ -150.2
34         (105)    3          0.23948 (  0.9971) /_   89.9

ELEMENT = "Line.LINE34"
31         ( 94)    1          0.23877 (  0.9941) /_  -30.1
31         ( 95)    2          0.23896 (  0.9949) /_ -150.2
31         ( 96)    3          0.23948 (  0.9971) /_   89.9
------------
35         (106)    1          0.23877 (  0.9941) /_  -30.1
35         (107)    2          0.23896 (  0.9949) /_ -150.2
35         (108)    3          0.23948 (  0.9971) /_   89.9

ELEMENT = "Line.LINE35"
32         ( 97)    1          0.23834 (  0.9924) /_  -30.1
32         ( 98)    2          0.23843 (  0.9927) /_ -150.2
32         ( 99)    3          0.23918 (  0.9958) /_   89.9
------------
36         (109)    1          0.23834 (  0.9924) /_  -30.1
36         (110)    2          0.23837 (  0.9925) /_ -150.2
36         (111)    3          0.23918 (  0.9959) /_   89.9

ELEMENT = "Line.LINE36"
32         ( 97)    1          0.23834 (  0.9924) /_  -30.1
32         ( 98)    2          0.23843 (  0.9927) /_ -150.2
32         ( 99)    3          0.23918 (  0.9958) /_   89.9
------------
37         (112)    1          0.23801 (   0.991) /_  -30.1
37         (113)    2          0.23814 (  0.9915) /_ -150.2
37         (114)    3          0.23899 (   0.995) /_   89.9

ELEMENT = "Line.LINE37"
33         (100)    1          0.23908 (  0.9954) /_  -30.1
33         (101)    2          0.23918 (  0.9959) /_ -150.2
33         (102)    3          0.23959 (  0.9975) /_   89.9
------------
38         (115)    1          0.23908 (  0.9954) /_  -30.1
38         (116)    2          0.23918 (  0.9959) /_ -150.2
38         (117)    3          0.23959 (  0.9975) /_   89.9

ELEMENT = "Line.LINE38"
35         (106)    1          0.23877 (  0.9941) /_  -30.1
35         (107)    2          0.23896 (  0.9949) /_ -150.2
35         (108)    3          0.23948 (  0.9971) /_   89.9
------------
39         (118)    1          0.23877 (  0.9941) /_  -30.1
39         (119)    2          0.23896 (  0.9949) /_ -150.2
39         (120)    3          0.23948 (  0.9971) /_   89.9

ELEMENT = "Line.LINE39"
36         (109)    1          0.23834 (  0.9924) /_  -30.1
36         (110)    2          0.23837 (  0.9925) /_ -150.2
36         (111)    3          0.23918 (  0.9959) /_   89.9
------------
40         (121)    1          0.23834 (  0.9924) /_  -30.1
40         (122)    2          0.23837 (  0.9925) /_ -150.2
40         (123)    3          0.23918 (  0.9959) /_   89.9

ELEMENT = "Line.LINE40"
36         (109)    1          0.23834 (  0.9924) /_  -30.1
36         (110)    2          0.23837 (  0.9925) /_ -150.2
36         (111)    3          0.23918 (  0.9959) /_   89.9
------------
41         (124)    1          0.23834 (  0.9924) /_  -30.1
41         (125)    2          0.23836 (  0.9924) /_ -150.2
41         (126)    3          0.23918 (  0.9959) /_   89.9

ELEMENT = "Line.LINE41"
37         (112)    1          0.23801 (   0.991) /_  -30.1
37         (113)    2          0.23814 (  0.9915) /_ -150.2
37         (114)    3          0.23899 (   0.995) /_   89.9
------------
42         (127)    1          0.23777 (    0.99) /_  -30.0
42         (128)    2          0.23795 (  0.9907) /_ -150.2
42         (129)    3          0.23885 (  0.9945) /_   89.9

ELEMENT = "Line.LINE42"
37         (112)    1          0.23801 (   0.991) /_  -30.1
37         (113)    2          0.23814 (  0.9915) /_ -150.2
37         (114)    3          0.23899 (   0.995) /_   89.9
------------
43         (130)    1          0.23801 (   0.991) /_  -30.1
43         (131)    2          0.23814 (  0.9915) /_ -150.2
43         (132)    3          0.23899 (   0.995) /_   89.9

ELEMENT = "Line.LINE43"
38         (115)    1          0.23908 (  0.9954) /_  -30.1
38         (116)    2          0.23918 (  0.9959) /_ -150.2
38         (117)    3          0.23959 (  0.9975) /_   89.9
------------
44         (133)    1          0.23908 (  0.9954) /_  -30.1
44         (134)    2          0.23918 (  0.9959) /_ -150.2
44         (135)    3          0.23959 (  0.9975) /_   89.9

ELEMENT = "Line.LINE44"
39         (118)    1          0.23877 (  0.9941) /_  -30.1
39         (119)    2          0.23896 (  0.9949) /_ -150.2
39         (120)    3          0.23948 (  0.9971) /_   89.9
------------
45         (136)    1          0.23877 (  0.9941) /_  -30.1
45         (137)    2          0.23896 (  0.9949) /_ -150.2
45         (138)    3          0.23948 (  0.9971) /_   89.9

ELEMENT = "Line.LINE45"
40         (121)    1          0.23834 (  0.9924) /_  -30.1
40         (122)    2          0.23837 (  0.9925) /_ -150.2
40         (123)    3          0.23918 (  0.9959) /_   89.9
------------
46         (139)    1          0.23834 (  0.9924) /_  -30.1
46         (140)    2          0.23837 (  0.9925) /_ -150.2
46         (141)    3          0.23918 (  0.9959) /_   89.9

ELEMENT = "Line.LINE46"
41         (124)    1          0.23834 (  0.9924) /_  -30.1
41         (125)    2          0.23836 (  0.9924) /_ -150.2
41         (126)    3          0.23918 (  0.9959) /_   89.9
------------
47         (142)    1          0.23834 (  0.9924) /_  -30.1
47         (143)    2          0.23834 (  0.9923) /_ -150.2
47         (144)    3          0.23918 (  0.9959) /_   89.9

ELEMENT = "Line.LINE47"
42         (127)    1          0.23777 (    0.99) /_  -30.0
42         (128)    2          0.23795 (  0.9907) /_ -150.2
42         (129)    3          0.23885 (  0.9945) /_   89.9
------------
48         (145)    1           0.2376 (  0.9893) /_  -30.0
48         (146)    2           0.2378 (  0.9901) /_ -150.2
48         (147)    3          0.23875 (  0.9941) /_   89.9

ELEMENT = "Line.LINE48"
43         (130)    1          0.23801 (   0.991) /_  -30.1
43         (131)    2          0.23814 (  0.9915) /_ -150.2
43         (132)    3          0.23899 (   0.995) /_   89.9
------------
49         (148)    1          0.23801 (   0.991) /_  -30.1
49         (149)    2          0.23814 (  0.9915) /_ -150.2
49         (150)    3          0.23899 (   0.995) /_   89.9

ELEMENT = "Line.LINE49"
44         (133)    1          0.23908 (  0.9954) /_  -30.1
44         (134)    2          0.23918 (  0.9959) /_ -150.2
44         (135)    3          0.23959 (  0.9975) /_   89.9
------------
50         (151)    1          0.23908 (  0.9954) /_  -30.1
50         (152)    2          0.23918 (  0.9959) /_ -150.2
50         (153)    3          0.23959 (  0.9975) /_   89.9

ELEMENT = "Line.LINE50"
45         (136)    1          0.23877 (  0.9941) /_  -30.1
45         (137)    2          0.23896 (  0.9949) /_ -150.2
45         (138)    3          0.23948 (  0.9971) /_   89.9
------------
51         (154)    1          0.23877 (  0.9941) /_  -30.1
51         (155)    2          0.23896 (  0.9949) /_ -150.2
51         (156)    3          0.23948 (  0.9971) /_   89.9

ELEMENT = "Line.LINE51"
46         (139)    1          0.23834 (  0.9924) /_  -30.1
46         (140)    2          0.23837 (  0.9925) /_ -150.2
46         (141)    3          0.23918 (  0.9959) /_   89.9
------------
52         (157)    1          0.23834 (  0.9924) /_  -30.1
52         (158)    2          0.23837 (  0.9925) /_ -150.2
52         (159)    3          0.23918 (  0.9959) /_   89.9

ELEMENT = "Line.LINE52"
48         (145)    1           0.2376 (  0.9893) /_  -30.0
48         (146)    2           0.2378 (  0.9901) /_ -150.2
48         (147)    3          0.23875 (  0.9941) /_   89.9
------------
53         (160)    1          0.23757 (  0.9892) /_  -30.0
53         (161)    2          0.23777 (    0.99) /_ -150.2
53         (162)    3          0.23874 (   0.994) /_   89.9

ELEMENT = "Line.LINE53"
48         (145)    1           0.2376 (  0.9893) /_  -30.0
48         (146)    2           0.2378 (  0.9901) /_ -150.2
48         (147)    3          0.23875 (  0.9941) /_   89.9
------------
54         (163)    1           0.2376 (  0.9893) /_  -30.0
54         (164)    2           0.2378 (  0.9901) /_ -150.2
54         (165)    3          0.23875 (  0.9941) /_   89.9

ELEMENT = "Line.LINE54"
49         (148)    1          0.23801 (   0.991) /_  -30.1
49         (149)    2          0.23814 (  0.9915) /_ -150.2
49         (150)    3          0.23899 (   0.995) /_   89.9
------------
55         (166)    1          0.23801 (   0.991) /_  -30.1
55         (167)    2          0.23814 (  0.9915) /_ -150.2
55         (168)    3          0.23899 (   0.995) /_   89.9

ELEMENT = "Line.LINE55"
50         (151)    1          0.23908 (  0.9954) /_  -30.1
50         (152)    2          0.23918 (  0.9959) /_ -150.2
50         (153)    3          0.23959 (  0.9975) /_   89.9
------------
56         (169)    1          0.23908 (  0.9954) /_  -30.1
56         (170)    2          0.23918 (  0.9959) /_ -150.2
56         (171)    3          0.23959 (  0.9975) /_   89.9

ELEMENT = "Line.LINE56"
51         (154)    1          0.23877 (  0.9941) /_  -30.1
51         (155)    2          0.23896 (  0.9949) /_ -150.2
51         (156)    3          0.23948 (  0.9971) /_   89.9
------------
57         (172)    1          0.23877 (  0.9941) /_  -30.1
57         (173)    2          0.23896 (  0.9949) /_ -150.2
57         (174)    3          0.23948 (  0.9971) /_   89.9

ELEMENT = "Line.LINE57"
52         (157)    1          0.23834 (  0.9924) /_  -30.1
52         (158)    2          0.23837 (  0.9925) /_ -150.2
52         (159)    3          0.23918 (  0.9959) /_   89.9
------------
58         (175)    1          0.23834 (  0.9924) /_  -30.1
58         (176)    2          0.23837 (  0.9925) /_ -150.2
58         (177)    3          0.23918 (  0.9959) /_   89.9

ELEMENT = "Line.LINE58"
53         (160)    1          0.23757 (  0.9892) /_  -30.0
53         (161)    2          0.23777 (    0.99) /_ -150.2
53         (162)    3          0.23874 (   0.994) /_   89.9
------------
59         (178)    1          0.23746 (  0.9887) /_  -30.0
59         (179)    2          0.23768 (  0.9896) /_ -150.2
59         (180)    3          0.23867 (  0.9937) /_   89.9

ELEMENT = "Line.LINE59"
54         (163)    1           0.2376 (  0.9893) /_  -30.0
54         (164)    2           0.2378 (  0.9901) /_ -150.2
54         (165)    3          0.23875 (  0.9941) /_   89.9
------------
60         (181)    1           0.2376 (  0.9893) /_  -30.0
60         (182)    2           0.2378 (  0.9901) /_ -150.2
60         (183)    3          0.23875 (  0.9941) /_   89.9

ELEMENT = "Line.LINE60"
55         (166)    1          0.23801 (   0.991) /_  -30.1
55         (167)    2          0.23814 (  0.9915) /_ -150.2
55         (168)    3          0.23899 (   0.995) /_   89.9
------------
61         (184)    1          0.23801 (   0.991) /_  -30.1
61         (185)    2          0.23814 (  0.9915) /_ -150.2
61         (186)    3          0.23899 (   0.995) /_   89.9

ELEMENT = "Line.LINE61"
56         (169)    1          0.23908 (  0.9954) /_  -30.1
56         (170)    2          0.23918 (  0.9959) /_ -150.2
56         (171)    3          0.23959 (  0.9975) /_   89.9
------------
62         (187)    1          0.23908 (  0.9954) /_  -30.1
62         (188)    2          0.23918 (  0.9959) /_ -150.2
62         (189)    3          0.23959 (  0.9975) /_   89.9

ELEMENT = "Line.LINE62"
57         (172)    1          0.23877 (  0.9941) /_  -30.1
57         (173)    2          0.23896 (  0.9949) /_ -150.2
57         (174)    3          0.23948 (  0.9971) /_   89.9
------------
63         (190)    1          0.23876 (  0.9941) /_  -30.1
63         (191)    2          0.23896 (  0.9949) /_ -150.2
63         (192)    3          0.23948 (  0.9971) /_   89.9

ELEMENT = "Line.LINE63"
58         (175)    1          0.23834 (  0.9924) /_  -30.1
58         (176)    2          0.23837 (  0.9925) /_ -150.2
58         (177)    3          0.23918 (  0.9959) /_   89.9
------------
64         (193)    1          0.23834 (  0.9924) /_  -30.1
64         (194)    2          0.23837 (  0.9925) /_ -150.2
64         (195)    3          0.23918 (  0.9959) /_   89.9

ELEMENT = "Line.LINE64"
59         (178)    1          0.23746 (  0.9887) /_  -30.0
59         (179)    2          0.23768 (  0.9896) /_ -150.2
59         (180)    3          0.23867 (  0.9937) /_   89.9
------------
65         (196)    1          0.23744 (  0.9886) /_  -30.0
65         (197)    2          0.23766 (  0.9895) /_ -150.2
65         (198)    3          0.23865 (  0.9937) /_   89.9

ELEMENT = "Line.LINE65"
59         (178)    1          0.23746 (  0.9887) /_  -30.0
59         (179)    2          0.23768 (  0.9896) /_ -150.2
59         (180)    3          0.23867 (  0.9937) /_   89.9
------------
66         (199)    1          0.23738 (  0.9883) /_  -30.0
66         (200)    2          0.23768 (  0.9896) /_ -150.2
66         (201)    3          0.23867 (  0.9937) /_   89.9

ELEMENT = "Line.LINE66"
60         (181)    1           0.2376 (  0.9893) /_  -30.0
60         (182)    2           0.2378 (  0.9901) /_ -150.2
60         (183)    3          0.23875 (  0.9941) /_   89.9
------------
67         (202)    1           0.2376 (  0.9893) /_  -30.0
67         (203)    2           0.2378 (  0.9901) /_ -150.2
67         (204)    3          0.23875 (  0.9941) /_   89.9

ELEMENT = "Line.LINE67"
61         (184)    1          0.23801 (   0.991) /_  -30.1
61         (185)    2          0.23814 (  0.9915) /_ -150.2
61         (186)    3          0.23899 (   0.995) /_   89.9
------------
68         (205)    1          0.23801 (   0.991) /_  -30.1
68         (206)    2          0.23814 (  0.9915) /_ -150.2
68         (207)    3          0.23899 (   0.995) /_   89.9

ELEMENT = "Line.LINE68"
62         (187)    1          0.23908 (  0.9954) /_  -30.1
62         (188)    2          0.23918 (  0.9959) /_ -150.2
62         (189)    3          0.23959 (  0.9975) /_   89.9
------------
69         (208)    1          0.23908 (  0.9954) /_  -30.1
69         (209)    2          0.23918 (  0.9959) /_ -150.2
69         (210)    3          0.23959 (  0.9975) /_   89.9

ELEMENT = "Line.LINE69"
63         (190)    1          0.23876 (  0.9941) /_  -30.1
63         (191)    2          0.23896 (  0.9949) /_ -150.2
63         (192)    3          0.23948 (  0.9971) /_   89.9
------------
70         (211)    1          0.23874 (   0.994) /_  -30.1
70         (212)    2          0.23896 (  0.9949) /_ -150.2
70         (213)    3          0.23948 (  0.9971) /_   89.9

ELEMENT = "Line.LINE70"
64         (193)    1          0.23834 (  0.9924) /_  -30.1
64         (194)    2          0.23837 (  0.9925) /_ -150.2
64         (195)    3          0.23918 (  0.9959) /_   89.9
------------
71         (214)    1          0.23834 (  0.9924) /_  -30.1
71         (215)    2          0.23836 (  0.9925) /_ -150.2
71         (216)    3          0.23918 (  0.9959) /_   89.9

ELEMENT = "Line.LINE71"
65         (196)    1          0.23744 (  0.9886) /_  -30.0
65         (197)    2          0.23766 (  0.9895) /_ -150.2
65         (198)    3          0.23865 (  0.9937) /_   89.9
------------
72         (217)    1          0.23721 (  0.9876) /_  -30.0
72         (218)    2          0.23742 (  0.9885) /_ -150.2
72         (219)    3          0.23848 (  0.9929) /_   89.9

ELEMENT = "Line.LINE72"
66         (199)    1          0.23738 (  0.9883) /_  -30.0
66         (200)    2          0.23768 (  0.9896) /_ -150.2
66         (201)    3          0.23867 (  0.9937) /_   89.9
------------
73         (220)    1          0.23736 (  0.9883) /_  -30.0
73         (221)    2          0.23768 (  0.9896) /_ -150.2
73         (222)    3          0.23867 (  0.9937) /_   89.9

ELEMENT = "Line.LINE73"
66         (199)    1          0.23738 (  0.9883) /_  -30.0
66         (200)    2          0.23768 (  0.9896) /_ -150.2
66         (201)    3          0.23867 (  0.9937) /_   89.9
------------
74         (223)    1          0.23736 (  0.9883) /_  -30.0
74         (224)    2          0.23768 (  0.9896) /_ -150.2
74         (225)    3          0.23867 (  0.9937) /_   89.9

ELEMENT = "Line.LINE74"
67         (202)    1           0.2376 (  0.9893) /_  -30.0
67         (203)    2           0.2378 (  0.9901) /_ -150.2
67         (204)    3          0.23875 (  0.9941) /_   89.9
------------
75         (226)    1           0.2376 (  0.9893) /_  -30.0
75         (227)    2           0.2378 (  0.9901) /_ -150.2
75         (228)    3          0.23875 (  0.9941) /_   89.9

ELEMENT = "Line.LINE75"
...